/*--------------------------------*- C++ -*----------------------------------*\
| =========                 |                                                 |
| \\      /  F ield         | OpenFOAM: The Open Source CFD Toolbox           |
|  \\    /   O peration     | Version:  v2412                                 |
|   \\  /    A nd           | Website:  www.openfoam.com                      |
|    \\/     M anipulation  |                                                 |
\*---------------------------------------------------------------------------*/
// WRITTEN BY CHRIS DILLOW | NOVEMBER 29, 2025 | TROPOCHIEF RC PLANE PROJECT
// FIELD: Transport Properties
FoamFile
{
    version 2.0;
    format ascii;
    class dictionary;
    location "constant";
    object transportProperties;
}

transportModel Newtonian;

// Air kinematic velocity ~1.5e-5 m^2/s
nu [0 2 -1 0 0 0 0] 1.5e-5;