/*--------------------------------*- C++ -*----------------------------------*\
| =========                 |                                                 |
| \\      /  F ield         | OpenFOAM: The Open Source CFD Toolbox           |
|  \\    /   O peration     | Version:  v2412                                 |
|   \\  /    A nd           | Website:  www.openfoam.com                      |
|    \\/     M anipulation  |                                                 |
\*---------------------------------------------------------------------------*/
// WRITTEN BY CHRIS DILLOW | NOVEMBER 29, 2025 | TROPOCHIEF RC PLANE PROJECT
// FIELD: Turbulence Properties
FoamFile
{
    version 2.0;
    format ascii;
    class dictionary;
    location "constant";
    object turbulenceProperties;
}

simulationType RAS;

RAS
{
    RASModel kOmegaSST;
    turbulence on;
    printCoeffs on;
}