/*--------------------------------*- C++ -*----------------------------------*\
| =========                 |                                                 |
| \\      /  F ield         | OpenFOAM: The Open Source CFD Toolbox           |
|  \\    /   O peration     | Version:  v2412                                 |
|   \\  /    A nd           | Website:  www.openfoam.com                      |
|    \\/     M anipulation  |                                                 |
\*---------------------------------------------------------------------------*/
// WRITTEN BY CHRIS DILLOW | NOVEMBER 29, 2025 | TROPOCHIEF RC PLANE PROJECT
// FIELD: Block Mesh Dictionary
FoamFile
{
    version 2.0;
    format ascii;
    class dictionary;
    object blockMeshDict;
    location "system";
}

scale 1;

vertices
(
    (-0.6 -0.5 -0.05)
    ( 2.0 -0.5 -0.05)
    ( 2.0  0.5 -0.05)
    (-0.6  0.5 -0.05)
    (-0.6 -0.5  0.05)
    ( 2.0 -0.5  0.05)
    ( 2.0  0.5  0.05)
    (-0.6  0.5  0.05)
);

blocks
(
    hex (0 1 2 3 4 5 6 7)
        (300 200 1)
        simpleGrading (1 1 1)
);

edges
(
);

boundary
(
    inlet
    {
        type patch;
        faces
        (
            (0 4 7 3) // Left side
        );
    }

    outlet
    {
        type patch;
        faces
        (
            (1 2 6 5) // Right side
        );
    }

    top
    {
        type patch;
        faces
        (
            (3 2 6 7) // Y = +15
        );
    }

    bottom
    {
        type patch;
        faces
        (
            (0 1 5 4) // Y = -15
        );
    }

    frontAndBack
    {
        type empty;
        faces
        (
            (0 1 2 3) // Z = 0
            (4 5 6 7) // Z = 0.1
        );
    }
);

mergePatchPairs
(
);